!-Generator IDFEditor 1.54
!-Option SortedOrder

!-NOTE: All comments with '!-' are ignored by the IDFEditor and are generated automatically.
!-      Use '!' comments if they need to be retained when using the IDFEditor.


!-   ===========  ALL OBJECTS IN CLASS: VERSION ===========

Version,
    24.2;                    !- Version Identifier


!-   ===========  ALL OBJECTS IN CLASS: SIMULATIONCONTROL ===========

SimulationControl,
    Yes,                     !- Do Zone Sizing Calculation
    Yes,                     !- Do System Sizing Calculation
    Yes,                     !- Do Plant Sizing Calculation
    No,                      !- Run Simulation for Sizing Periods
    Yes,                     !- Run Simulation for Weather File Run Periods
    No,                      !- Do HVAC Sizing Simulation for Sizing Periods
    1;                       !- Maximum Number of HVAC Sizing Simulation Passes


!-   ===========  ALL OBJECTS IN CLASS: BUILDING ===========

Building,
    Ref Bldg Midrise Apartment Pre1980_v1.3_5.0,  !- Name
    0,                       !- North Axis {deg}
    City,                    !- Terrain
    0.04,                    !- Loads Convergence Tolerance Value {W}
    0.2,                     !- Temperature Convergence Tolerance Value {deltaC}
    FullInteriorAndExterior, !- Solar Distribution
    25,                      !- Maximum Number of Warmup Days
    6;                       !- Minimum Number of Warmup Days


!-   ===========  ALL OBJECTS IN CLASS: SHADOWCALCULATION ===========

ShadowCalculation,
    PolygonClipping,         !- Shading Calculation Method
    Periodic,                !- Shading Calculation Update Frequency Method
    7,                       !- Shading Calculation Update Frequency
    15000,                   !- Maximum Figures in Shadow Overlap Calculations
    SutherlandHodgman,       !- Polygon Clipping Algorithm
    512,                     !- Pixel Counting Resolution
    SimpleSkyDiffuseModeling,!- Sky Diffuse Modeling Algorithm
    No,                      !- Output External Shading Calculation Results
    No,                      !- Disable Self-Shading Within Shading Zone Groups
    No;                      !- Disable Self-Shading From Shading Zone Groups to Other Zones


!-   ===========  ALL OBJECTS IN CLASS: HEATBALANCEALGORITHM ===========

HeatBalanceAlgorithm,
    ConductionTransferFunction,  !- Algorithm
    200;                     !- Surface Temperature Upper Limit {C}


!-   ===========  ALL OBJECTS IN CLASS: ZONEAIRHEATBALANCEALGORITHM ===========

ZoneAirHeatBalanceAlgorithm,
    AnalyticalSolution,      !- Algorithm
    No,                      !- Do Space Heat Balance for Sizing
    No;                      !- Do Space Heat Balance for Simulation


!-   ===========  ALL OBJECTS IN CLASS: TIMESTEP ===========

Timestep,
    6;                       !- Number of Timesteps per Hour


!-   ===========  ALL OBJECTS IN CLASS: CONVERGENCELIMITS ===========

ConvergenceLimits,
    2,                       !- Minimum System Timestep {minutes}
    25;                      !- Maximum HVAC Iterations


!-   ===========  ALL OBJECTS IN CLASS: SITE:LOCATION ===========

Site:Location,
    OTTAWA-INTL-ONT,         !- Name
    45.32,                   !- Latitude {deg}
    -75.67,                  !- Longitude {deg}
    -5,                      !- Time Zone {hr}
    114;                     !- Elevation {m}


!-   ===========  ALL OBJECTS IN CLASS: SIZINGPERIOD:DESIGNDAY ===========

SizingPeriod:DesignDay,
    CHICAGO Ann Clg .4% Condns WB=>MDB,  !- Name
    7,                       !- Month
    21,                      !- Day of Month
    SummerDesignDay,         !- Day Type
    31.2,                    !- Maximum Dry-Bulb Temperature {C}
    10.7,                    !- Daily Dry-Bulb Temperature Range {deltaC}
    DefaultMultipliers,      !- Dry-Bulb Temperature Range Modifier Type
    ,                        !- Dry-Bulb Temperature Range Modifier Day Schedule Name
    Wetbulb,                 !- Humidity Condition Type
    25.5,                    !- Wetbulb or DewPoint at Maximum Dry-Bulb {C}
    ,                        !- Humidity Condition Day Schedule Name
    ,                        !- Humidity Ratio at Maximum Dry-Bulb {kgWater/kgDryAir}
    ,                        !- Enthalpy at Maximum Dry-Bulb {J/kg}
    ,                        !- Daily Wet-Bulb Temperature Range {deltaC}
    99063,                   !- Barometric Pressure {Pa}
    5.3,                     !- Wind Speed {m/s}
    230,                     !- Wind Direction {deg}
    No,                      !- Rain Indicator
    No,                      !- Snow Indicator
    No,                      !- Daylight Saving Time Indicator
    ASHRAEClearSky,          !- Solar Model Indicator
    ,                        !- Beam Solar Day Schedule Name
    ,                        !- Diffuse Solar Day Schedule Name
    ,                        !- ASHRAE Clear Sky Optical Depth for Beam Irradiance (taub) {dimensionless}
    ,                        !- ASHRAE Clear Sky Optical Depth for Diffuse Irradiance (taud) {dimensionless}
    1,                       !- Sky Clearness
    ,                        !- Maximum Number Warmup Days
    FullResetAtBeginEnvironment;  !- Begin Environment Reset Mode

SizingPeriod:DesignDay,
    CHICAGO Ann Htg 99.6% Condns DB,  !- Name
    1,                       !- Month
    21,                      !- Day of Month
    WinterDesignDay,         !- Day Type
    -20.6,                   !- Maximum Dry-Bulb Temperature {C}
    0,                       !- Daily Dry-Bulb Temperature Range {deltaC}
    DefaultMultipliers,      !- Dry-Bulb Temperature Range Modifier Type
    ,                        !- Dry-Bulb Temperature Range Modifier Day Schedule Name
    Wetbulb,                 !- Humidity Condition Type
    -20.6,                   !- Wetbulb or DewPoint at Maximum Dry-Bulb {C}
    ,                        !- Humidity Condition Day Schedule Name
    ,                        !- Humidity Ratio at Maximum Dry-Bulb {kgWater/kgDryAir}
    ,                        !- Enthalpy at Maximum Dry-Bulb {J/kg}
    ,                        !- Daily Wet-Bulb Temperature Range {deltaC}
    99063,                   !- Barometric Pressure {Pa}
    4.9,                     !- Wind Speed {m/s}
    270,                     !- Wind Direction {deg}
    No,                      !- Rain Indicator
    No,                      !- Snow Indicator
    No,                      !- Daylight Saving Time Indicator
    ASHRAEClearSky,          !- Solar Model Indicator
    ,                        !- Beam Solar Day Schedule Name
    ,                        !- Diffuse Solar Day Schedule Name
    ,                        !- ASHRAE Clear Sky Optical Depth for Beam Irradiance (taub) {dimensionless}
    ,                        !- ASHRAE Clear Sky Optical Depth for Diffuse Irradiance (taud) {dimensionless}
    0,                       !- Sky Clearness
    ,                        !- Maximum Number Warmup Days
    FullResetAtBeginEnvironment;  !- Begin Environment Reset Mode


!-   ===========  ALL OBJECTS IN CLASS: RUNPERIOD ===========

RunPeriod,
    Run Period 1,            !- Name
    1,                       !- Begin Month
    1,                       !- Begin Day of Month
    2019,                    !- Begin Year
    12,                      !- End Month
    31,                      !- End Day of Month
    2019,                    !- End Year
    Tuesday,                 !- Day of Week for Start Day
    No,                      !- Use Weather File Holidays and Special Days
    No,                      !- Use Weather File Daylight Saving Period
    No,                      !- Apply Weekend Holiday Rule
    Yes,                     !- Use Weather File Rain Indicators
    Yes;                     !- Use Weather File Snow Indicators


!-   ===========  ALL OBJECTS IN CLASS: RUNPERIODCONTROL:SPECIALDAYS ===========

RunPeriodControl:SpecialDays,
    Christmas,               !- Name
    December 25,             !- Start Date
    1,                       !- Duration {days}
    Holiday;                 !- Special Day Type

RunPeriodControl:SpecialDays,
    Columbus Day,            !- Name
    2nd Monday in October,   !- Start Date
    1,                       !- Duration {days}
    Holiday;                 !- Special Day Type

RunPeriodControl:SpecialDays,
    Independence Day,        !- Name
    July 4,                  !- Start Date
    1,                       !- Duration {days}
    Holiday;                 !- Special Day Type

RunPeriodControl:SpecialDays,
    Labor Day,               !- Name
    1st Monday in September, !- Start Date
    1,                       !- Duration {days}
    Holiday;                 !- Special Day Type

RunPeriodControl:SpecialDays,
    Memorial Day,            !- Name
    Last Monday in May,      !- Start Date
    1,                       !- Duration {days}
    Holiday;                 !- Special Day Type

RunPeriodControl:SpecialDays,
    MLK Day,                 !- Name
    3rd Monday in January,   !- Start Date
    1,                       !- Duration {days}
    Holiday;                 !- Special Day Type

RunPeriodControl:SpecialDays,
    New Years Day,           !- Name
    January 1,               !- Start Date
    1,                       !- Duration {days}
    Holiday;                 !- Special Day Type

RunPeriodControl:SpecialDays,
    Presidents Day,          !- Name
    3rd Monday in February,  !- Start Date
    1,                       !- Duration {days}
    Holiday;                 !- Special Day Type

RunPeriodControl:SpecialDays,
    Thanksgiving,            !- Name
    4th Thursday in November,!- Start Date
    1,                       !- Duration {days}
    Holiday;                 !- Special Day Type

RunPeriodControl:SpecialDays,
    Veterans Day,            !- Name
    November 11,             !- Start Date
    1,                       !- Duration {days}
    Holiday;                 !- Special Day Type


!-   ===========  ALL OBJECTS IN CLASS: RUNPERIODCONTROL:DAYLIGHTSAVINGTIME ===========

RunPeriodControl:DaylightSavingTime,
    1/1,                     !- Start Date
    12/31;                   !- End Date


!-   ===========  ALL OBJECTS IN CLASS: SCHEDULETYPELIMITS ===========

ScheduleTypeLimits,
    Fraction,                !- Name
    0,                       !- Lower Limit Value
    1,                       !- Upper Limit Value
    CONTINUOUS;              !- Numeric Type

ScheduleTypeLimits,
    G Corridor Thermostat Schedule Type Limits,  !- Name
    0,                       !- Lower Limit Value
    4,                       !- Upper Limit Value
    DISCRETE;                !- Numeric Type

ScheduleTypeLimits,
    Temperature,             !- Name
    -60,                     !- Lower Limit Value
    200,                     !- Upper Limit Value
    CONTINUOUS,              !- Numeric Type
    temperature;             !- Unit Type

ScheduleTypeLimits,
    ActivityLevel,           !- Name
    0,                       !- Lower Limit Value
    ,                        !- Upper Limit Value
    Continuous,              !- Numeric Type
    activitylevel;           !- Unit Type

ScheduleTypeLimits,
    Any Number;              !- Name

ScheduleTypeLimits,
    Velocity,                !- Name
    0,                       !- Lower Limit Value
    ,                        !- Upper Limit Value
    Continuous,              !- Numeric Type
    velocity;                !- Unit Type

ScheduleTypeLimits,
    G N1 Apartment Thermostat Schedule Type Limits,  !- Name
    0,                       !- Lower Limit Value
    4,                       !- Upper Limit Value
    DISCRETE;                !- Numeric Type

ScheduleTypeLimits,
    G N2 Apartment Thermostat Schedule Type Limits,  !- Name
    0,                       !- Lower Limit Value
    4,                       !- Upper Limit Value
    DISCRETE;                !- Numeric Type

ScheduleTypeLimits,
    G NE Apartment Thermostat Schedule Type Limits,  !- Name
    0,                       !- Lower Limit Value
    4,                       !- Upper Limit Value
    DISCRETE;                !- Numeric Type

ScheduleTypeLimits,
    G NW Apartment Thermostat Schedule Type Limits,  !- Name
    0,                       !- Lower Limit Value
    4,                       !- Upper Limit Value
    DISCRETE;                !- Numeric Type

ScheduleTypeLimits,
    G S1 Apartment Thermostat Schedule Type Limits,  !- Name
    0,                       !- Lower Limit Value
    4,                       !- Upper Limit Value
    DISCRETE;                !- Numeric Type

ScheduleTypeLimits,
    G S2 Apartment Thermostat Schedule Type Limits,  !- Name
    0,                       !- Lower Limit Value
    4,                       !- Upper Limit Value
    DISCRETE;                !- Numeric Type

ScheduleTypeLimits,
    G SW Apartment Thermostat Schedule Type Limits,  !- Name
    0,                       !- Lower Limit Value
    4,                       !- Upper Limit Value
    DISCRETE;                !- Numeric Type

ScheduleTypeLimits,
    M Corridor Thermostat Schedule Type Limits,  !- Name
    0,                       !- Lower Limit Value
    4,                       !- Upper Limit Value
    DISCRETE;                !- Numeric Type

ScheduleTypeLimits,
    M N1 Apartment Thermostat Schedule Type Limits,  !- Name
    0,                       !- Lower Limit Value
    4,                       !- Upper Limit Value
    DISCRETE;                !- Numeric Type

ScheduleTypeLimits,
    M N2 Apartment Thermostat Schedule Type Limits,  !- Name
    0,                       !- Lower Limit Value
    4,                       !- Upper Limit Value
    DISCRETE;                !- Numeric Type

ScheduleTypeLimits,
    M NE Apartment Thermostat Schedule Type Limits,  !- Name
    0,                       !- Lower Limit Value
    4,                       !- Upper Limit Value
    DISCRETE;                !- Numeric Type

ScheduleTypeLimits,
    M NW Apartment Thermostat Schedule Type Limits,  !- Name
    0,                       !- Lower Limit Value
    4,                       !- Upper Limit Value
    DISCRETE;                !- Numeric Type

ScheduleTypeLimits,
    M S1 Apartment Thermostat Schedule Type Limits,  !- Name
    0,                       !- Lower Limit Value
    4,                       !- Upper Limit Value
    DISCRETE;                !- Numeric Type

ScheduleTypeLimits,
    M S2 Apartment Thermostat Schedule Type Limits,  !- Name
    0,                       !- Lower Limit Value
    4,                       !- Upper Limit Value
    DISCRETE;                !- Numeric Type

ScheduleTypeLimits,
    M SE Apartment Thermostat Schedule Type Limits,  !- Name
    0,                       !- Lower Limit Value
    4,                       !- Upper Limit Value
    DISCRETE;                !- Numeric Type

ScheduleTypeLimits,
    M SW Apartment Thermostat Schedule Type Limits,  !- Name
    0,                       !- Lower Limit Value
    4,                       !- Upper Limit Value
    DISCRETE;                !- Numeric Type

ScheduleTypeLimits,
    Office Thermostat Schedule Type Limits,  !- Name
    0,                       !- Lower Limit Value
    4,                       !- Upper Limit Value
    DISCRETE;                !- Numeric Type

ScheduleTypeLimits,
    T Corridor Thermostat Schedule Type Limits,  !- Name
    0,                       !- Lower Limit Value
    4,                       !- Upper Limit Value
    DISCRETE;                !- Numeric Type

ScheduleTypeLimits,
    T N1 Apartment Thermostat Schedule Type Limits,  !- Name
    0,                       !- Lower Limit Value
    4,                       !- Upper Limit Value
    DISCRETE;                !- Numeric Type

ScheduleTypeLimits,
    T N2 Apartment Thermostat Schedule Type Limits,  !- Name
    0,                       !- Lower Limit Value
    4,                       !- Upper Limit Value
    DISCRETE;                !- Numeric Type

ScheduleTypeLimits,
    T NE Apartment Thermostat Schedule Type Limits,  !- Name
    0,                       !- Lower Limit Value
    4,                       !- Upper Limit Value
    DISCRETE;                !- Numeric Type

ScheduleTypeLimits,
    T NW Apartment Thermostat Schedule Type Limits,  !- Name
    0,                       !- Lower Limit Value
    4,                       !- Upper Limit Value
    DISCRETE;                !- Numeric Type

ScheduleTypeLimits,
    T S1 Apartment Thermostat Schedule Type Limits,  !- Name
    0,                       !- Lower Limit Value
    4,                       !- Upper Limit Value
    DISCRETE;                !- Numeric Type

ScheduleTypeLimits,
    T S2 Apartment Thermostat Schedule Type Limits,  !- Name
    0,                       !- Lower Limit Value
    4,                       !- Upper Limit Value
    DISCRETE;                !- Numeric Type

ScheduleTypeLimits,
    T SE Apartment Thermostat Schedule Type Limits,  !- Name
    0,                       !- Lower Limit Value
    4,                       !- Upper Limit Value
    DISCRETE;                !- Numeric Type

ScheduleTypeLimits,
    T SW Apartment Thermostat Schedule Type Limits,  !- Name
    0,                       !- Lower Limit Value
    4,                       !- Upper Limit Value
    DISCRETE;                !- Numeric Type

ScheduleTypeLimits,
    Fractional,              !- Name
    0,                       !- Lower Limit Value
    1,                       !- Upper Limit Value
    Continuous;              !- Numeric Type

ScheduleTypeLimits,
    Humidity,                !- Name
    10,                      !- Lower Limit Value
    90,                      !- Upper Limit Value
    CONTINUOUS;              !- Numeric Type

ScheduleTypeLimits,
    On/Off,                  !- Name
    0,                       !- Lower Limit Value
    1,                       !- Upper Limit Value
    DISCRETE,                !- Numeric Type
    availability;            !- Unit Type

ScheduleTypeLimits,
    OnOff,                   !- Name
    0,                       !- Lower Limit Value
    1,                       !- Upper Limit Value
    Discrete,                !- Numeric Type
    availability;            !- Unit Type

ScheduleTypeLimits,
    OnOff 1,                 !- Name
    0,                       !- Lower Limit Value
    1,                       !- Upper Limit Value
    Discrete,                !- Numeric Type
    availability;            !- Unit Type

ScheduleTypeLimits,
    OnOff hvac_library,      !- Name
    0,                       !- Lower Limit Value
    1,                       !- Upper Limit Value
    Discrete,                !- Numeric Type
    availability;            !- Unit Type

ScheduleTypeLimits,
    Schedule Type Limits 1;  !- Name

ScheduleTypeLimits,
    Schedule Type Limits 2;  !- Name

ScheduleTypeLimits,
    Schedule Type Limits 3;  !- Name

ScheduleTypeLimits,
    Schedule Type Limits 4;  !- Name

ScheduleTypeLimits,
    Schedule Type Limits 5;  !- Name

ScheduleTypeLimits,
    Temperature 1,           !- Name
    ,                        !- Lower Limit Value
    ,                        !- Upper Limit Value
    Continuous,              !- Numeric Type
    temperature;             !- Unit Type

ScheduleTypeLimits,
    Temperature 2,           !- Name
    ,                        !- Lower Limit Value
    ,                        !- Upper Limit Value
    Continuous,              !- Numeric Type
    temperature;             !- Unit Type


!-   ===========  ALL OBJECTS IN CLASS: SCHEDULE:DAY:INTERVAL ===========

Schedule:Day:Interval,
    Chilled Water Temperature Default,  !- Name
    Temperature 2,           !- Schedule Type Limits Name
    No,                      !- Interpolate to Timestep
    24:00,                   !- Time 1 {hh:mm}
    6.7;                     !- Value Until Time 1

Schedule:Day:Interval,
    Chilled Water Temperature Summer Design Day,  !- Name
    Temperature 2,           !- Schedule Type Limits Name
    No,                      !- Interpolate to Timestep
    24:00,                   !- Time 1 {hh:mm}
    6.7;                     !- Value Until Time 1

Schedule:Day:Interval,
    Chilled Water Temperature Winter Design Day,  !- Name
    Temperature 2,           !- Schedule Type Limits Name
    No,                      !- Interpolate to Timestep
    24:00,                   !- Time 1 {hh:mm}
    6.7;                     !- Value Until Time 1

Schedule:Day:Interval,
    Hot Water Temperature Default,  !- Name
    Temperature 1,           !- Schedule Type Limits Name
    No,                      !- Interpolate to Timestep
    24:00,                   !- Time 1 {hh:mm}
    82;                      !- Value Until Time 1

Schedule:Day:Interval,
    Hot Water Temperature Summer Design Day,  !- Name
    Temperature 1,           !- Schedule Type Limits Name
    No,                      !- Interpolate to Timestep
    24:00,                   !- Time 1 {hh:mm}
    67;                      !- Value Until Time 1

Schedule:Day:Interval,
    Hot Water Temperature Winter Design Day,  !- Name
    Temperature 1,           !- Schedule Type Limits Name
    No,                      !- Interpolate to Timestep
    24:00,                   !- Time 1 {hh:mm}
    67;                      !- Value Until Time 1


!-   ===========  ALL OBJECTS IN CLASS: SCHEDULE:WEEK:DAILY ===========

Schedule:Week:Daily,
    Chilled Water Temperature Week Rule - Jan1-Dec31,  !- Name
    Chilled Water Temperature Default,  !- Sunday Schedule:Day Name
    Chilled Water Temperature Default,  !- Monday Schedule:Day Name
    Chilled Water Temperature Default,  !- Tuesday Schedule:Day Name
    Chilled Water Temperature Default,  !- Wednesday Schedule:Day Name
    Chilled Water Temperature Default,  !- Thursday Schedule:Day Name
    Chilled Water Temperature Default,  !- Friday Schedule:Day Name
    Chilled Water Temperature Default,  !- Saturday Schedule:Day Name
    Chilled Water Temperature Default,  !- Holiday Schedule:Day Name
    Chilled Water Temperature Summer Design Day,  !- SummerDesignDay Schedule:Day Name
    Chilled Water Temperature Winter Design Day,  !- WinterDesignDay Schedule:Day Name
    Chilled Water Temperature Default,  !- CustomDay1 Schedule:Day Name
    Chilled Water Temperature Default;  !- CustomDay2 Schedule:Day Name

Schedule:Week:Daily,
    Hot Water Temperature Week Rule - Jan1-Dec31,  !- Name
    Hot Water Temperature Default,  !- Sunday Schedule:Day Name
    Hot Water Temperature Default,  !- Monday Schedule:Day Name
    Hot Water Temperature Default,  !- Tuesday Schedule:Day Name
    Hot Water Temperature Default,  !- Wednesday Schedule:Day Name
    Hot Water Temperature Default,  !- Thursday Schedule:Day Name
    Hot Water Temperature Default,  !- Friday Schedule:Day Name
    Hot Water Temperature Default,  !- Saturday Schedule:Day Name
    Hot Water Temperature Default,  !- Holiday Schedule:Day Name
    Hot Water Temperature Summer Design Day,  !- SummerDesignDay Schedule:Day Name
    Hot Water Temperature Winter Design Day,  !- WinterDesignDay Schedule:Day Name
    Hot Water Temperature Default,  !- CustomDay1 Schedule:Day Name
    Hot Water Temperature Default;  !- CustomDay2 Schedule:Day Name


!-   ===========  ALL OBJECTS IN CLASS: SCHEDULE:YEAR ===========

Schedule:Year,
    Chilled Water Temperature,  !- Name
    Temperature 2,           !- Schedule Type Limits Name
    Chilled Water Temperature Week Rule - Jan1-Dec31,  !- Schedule:Week Name 1
    1,                       !- Start Month 1
    1,                       !- Start Day 1
    12,                      !- End Month 1
    31;                      !- End Day 1

Schedule:Year,
    Hot Water Temperature,   !- Name
    Temperature 1,           !- Schedule Type Limits Name
    Hot Water Temperature Week Rule - Jan1-Dec31,  !- Schedule:Week Name 1
    1,                       !- Start Month 1
    1,                       !- Start Day 1
    12,                      !- End Month 1
    31;                      !- End Day 1


!-   ===========  ALL OBJECTS IN CLASS: SCHEDULE:COMPACT ===========

Schedule:Compact,
    COR_LIGHT_SCH,           !- Name
    Fraction,                !- Schedule Type Limits Name
    Through: 12/31,          !- Field 1
    For: AllDays,            !- Field 2
    Until: 24:00,            !- Field 3
    1.0;                     !- Field 4

Schedule:Compact,
    BLDG_ELEVATORS,          !- Name
    Fraction,                !- Schedule Type Limits Name
    Through: 12/31,          !- Field 1
    For: AllDays,            !- Field 2
    Until: 04:00,            !- Field 3
    0.05,                    !- Field 4
    Until: 05:00,            !- Field 5
    0.10,                    !- Field 6
    Until: 06:00,            !- Field 7
    0.20,                    !- Field 8
    Until: 07:00,            !- Field 9
    0.40,                    !- Field 10
    Until: 09:00,            !- Field 11
    0.50,                    !- Field 12
    Until: 10:00,            !- Field 13
    0.35,                    !- Field 14
    Until: 16:00,            !- Field 15
    0.15,                    !- Field 16
    Until: 17:00,            !- Field 17
    0.35,                    !- Field 18
    Until: 19:00,            !- Field 19
    0.50,                    !- Field 20
    Until: 21:00,            !- Field 21
    0.40,                    !- Field 22
    Until: 22:00,            !- Field 23
    0.30,                    !- Field 24
    Until: 23:00,            !- Field 25
    0.20,                    !- Field 26
    Until: 24:00,            !- Field 27
    0.10;                    !- Field 28

Schedule:Compact,
    G Corridor Thermostat Schedule,  !- Name
    G Corridor Thermostat Schedule Type Limits,  !- Schedule Type Limits Name
    Through: 12/31,          !- Field 1
    For: AllDays,            !- Field 2
    Until: 24:00,            !- Field 3
    4;                       !- Field 4

Schedule:Compact,
    UnitHeater_HtgSP_Sch,    !- Name
    Temperature,             !- Schedule Type Limits Name
    THROUGH: 12/31,          !- Field 1
    FOR:AllDays,             !- Field 2
    UNTIL: 24:00,            !- Field 3
    15.6;                    !- Field 4

Schedule:Compact,
    UnitHeater_ClgSP_Sch,    !- Name
    Temperature,             !- Schedule Type Limits Name
    THROUGH: 12/31,          !- Field 1
    FOR:AllDays,             !- Field 2
    UNTIL: 24:00,            !- Field 3
    40;                      !- Field 4

Schedule:Compact,
    APT_LIGHT_SCH,           !- Name
    Fraction,                !- Schedule Type Limits Name
    Through: 12/31,          !- Field 1
    For: AllDays,            !- Field 2
    Until: 04:00,            !- Field 3
    0.067,                   !- Field 4
    Until: 05:00,            !- Field 5
    0.187,                   !- Field 6
    Until: 06:00,            !- Field 7
    0.394,                   !- Field 8
    Until: 07:00,            !- Field 9
    0.440,                   !- Field 10
    Until: 08:00,            !- Field 11
    0.393,                   !- Field 12
    Until: 09:00,            !- Field 13
    0.172,                   !- Field 14
    Until: 15:00,            !- Field 15
    0.119,                   !- Field 16
    Until: 16:00,            !- Field 17
    0.206,                   !- Field 18
    Until: 17:00,            !- Field 19
    0.439,                   !- Field 20
    Until: 18:00,            !- Field 21
    0.616,                   !- Field 22
    Until: 19:00,            !- Field 23
    0.829,                   !- Field 24
    Until: 20:00,            !- Field 25
    0.986,                   !- Field 26
    Until: 21:00,            !- Field 27
    1.0,                     !- Field 28
    Until: 22:00,            !- Field 29
    0.692,                   !- Field 30
    Until: 23:00,            !- Field 31
    0.384,                   !- Field 32
    Until: 24:00,            !- Field 33
    0.160;                   !- Field 34

Schedule:Compact,
    APT_OCC_SCH,             !- Name
    Fraction,                !- Schedule Type Limits Name
    Through: 12/31,          !- Field 1
    For: AllDays,            !- Field 2
    Until: 7:00,             !- Field 3
    1.0,                     !- Field 4
    Until: 8:00,             !- Field 5
    0.85,                    !- Field 6
    Until: 9:00,             !- Field 7
    0.39,                    !- Field 8
    Until: 16:00,            !- Field 9
    0.25,                    !- Field 10
    Until: 17:00,            !- Field 11
    0.3,                     !- Field 12
    Until: 18:00,            !- Field 13
    0.52,                    !- Field 14
    Until: 21:00,            !- Field 15
    0.87,                    !- Field 16
    Until: 24:00,            !- Field 17
    1.0;                     !- Field 18

Schedule:Compact,
    ACTIVITY_SCH,            !- Name
    ActivityLevel,           !- Schedule Type Limits Name
    Through: 12/31,          !- Field 1
    For: AllDays,            !- Field 2
    Until: 24:00,            !- Field 3
    120;                     !- Field 4

Schedule:Compact,